!-Generator IDFEditor 1.47
!-Option SortedOrder UseSpecialFormat ViewInIPunits
!-NOTE: All comments with '!-' are ignored by the IDFEditor and are generated automatically.
!-      Use '!' comments if they need to be retained when using the IDFEditor.
!-   ===========  ALL OBJECTS IN CLASS: VERSION ===========

  Version,8.5;

!-   ===========  ALL OBJECTS IN CLASS: SIMULATIONCONTROL ===========
! ===========  File Prefix ===========
! ===========  Simulation Parameters ===========

  SimulationControl,
    No,                      !- Do Zone Sizing Calculation
    No,                      !- Do System Sizing Calculation
    No,                      !- Do Plant Sizing Calculation
    No,                      !- Run Simulation for Sizing Periods
    Yes;                     !- Run Simulation for Weather File Run Periods

!-   ===========  ALL OBJECTS IN CLASS: BUILDING ===========

  Building,
    Office,                  !- Name
    0,                       !- North Axis {deg}
    Suburbs,                 !- Terrain
    0.04,                    !- Loads Convergence Tolerance Value
    0.4,                     !- Temperature Convergence Tolerance Value {deltaC}
    FullInteriorAndExteriorWithReflections,  !- Solar Distribution
    30,                      !- Maximum Number of Warmup Days
    6;                       !- Minimum Number of Warmup Days

!-   ===========  ALL OBJECTS IN CLASS: SHADOWCALCULATION ===========

  ShadowCalculation,
    AverageOverDaysInFrequency,  !- Calculation Method
    20,                      !- Calculation Frequency
    50000;                   !- Maximum Figures in Shadow Overlap Calculations

!-   ===========  ALL OBJECTS IN CLASS: SURFACECONVECTIONALGORITHM:INSIDE ===========

  SurfaceConvectionAlgorithm:Inside,TARP;

!-   ===========  ALL OBJECTS IN CLASS: SURFACECONVECTIONALGORITHM:OUTSIDE ===========

  SurfaceConvectionAlgorithm:Outside,SimpleCombined;

!-   ===========  ALL OBJECTS IN CLASS: HEATBALANCEALGORITHM ===========

  HeatBalanceAlgorithm,ConductionTransferFunction;

!-   ===========  ALL OBJECTS IN CLASS: ZONECAPACITANCEMULTIPLIER:RESEARCHSPECIAL ===========

  ZoneCapacitanceMultiplier:ResearchSpecial,
    1,                       !- Temperature Capacity Multiplier
    1,                       !- Humidity Capacity Multiplier
    1,                       !- Carbon Dioxide Capacity Multiplier
    ;                        !- Generic Contaminant Capacity Multiplier

!-   ===========  ALL OBJECTS IN CLASS: TIMESTEP ===========

  Timestep,4;

!-   ===========  ALL OBJECTS IN CLASS: SITE:LOCATION ===========

  Site:Location,
    Oakland Metropolitan Arpt_CA_USA Design_Conditions,  !- Name
    37.72,                   !- Latitude {deg}
    -122.22,                 !- Longitude {deg}
    -8.0,                    !- Time Zone {hr}
    2.00;                    !- Elevation {m}

!-   ===========  ALL OBJECTS IN CLASS: RUNPERIOD ===========
! ===========  Run Period ===========

  RunPeriod,
    datarun,                 !- Name
    1,                       !- Begin Month
    1,                       !- Begin Day of Month
    1,                       !- End Month
    10,                       !- End Day of Month
    UseWeatherFile,          !- Day of Week for Start Day
    No,                      !- Use Weather File Holidays and Special Days
    No,                      !- Use Weather File Daylight Saving Period
    Yes,                     !- Apply Weekend Holiday Rule
    Yes,                     !- Use Weather File Rain Indicators
    Yes;                     !- Use Weather File Snow Indicators

!-   ===========  ALL OBJECTS IN CLASS: SITE:GROUNDTEMPERATURE:BUILDINGSURFACE ===========
! ===========  Envelope ===========

  Site:GroundTemperature:BuildingSurface,22.0,22.0,22.0,22.0,22.0,22.0,22.0,22.0,22.0,22.0,22.0,22.0;

!-   ===========  ALL OBJECTS IN CLASS: SCHEDULETYPELIMITS ===========

  ScheduleTypeLimits,
    AnyNumber,               !- Name
    ,                        !- Lower Limit Value
    ,                        !- Upper Limit Value
    CONTINUOUS;              !- Numeric Type

  ScheduleTypeLimits,
    On/Off,                  !- Name
    0,                       !- Lower Limit Value
    1,                       !- Upper Limit Value
    DISCRETE,                !- Numeric Type
    Availability;            !- Unit Type

  ScheduleTypeLimits,
    Fraction,                !- Name
    0,                       !- Lower Limit Value
    1,                       !- Upper Limit Value
    CONTINUOUS,              !- Numeric Type
    Dimensionless;           !- Unit Type

  ScheduleTypeLimits,
    Temperature,             !- Name
    -60,                     !- Lower Limit Value
    200,                     !- Upper Limit Value
    CONTINUOUS,              !- Numeric Type
    Temperature;             !- Unit Type

  ScheduleTypeLimits,
    Control Type,            !- Name
    1,                       !- Lower Limit Value
    4,                       !- Upper Limit Value
    Discrete,                !- Numeric Type
    Control;                 !- Unit Type

  ScheduleTypeLimits,
    AirFlowRate,             !- Name
    0,                       !- Lower Limit Value
    3,                       !- Upper Limit Value
    Continuous;              !- Numeric Type

  ScheduleTypeLimits,
    WaterFlowRate,           !- Name
    0,                       !- Lower Limit Value
    0.1,                     !- Upper Limit Value
    Continuous;              !- Numeric Type

!-   ===========  ALL OBJECTS IN CLASS: SCHEDULE:COMPACT ===========
! ===========  HVAC ===========

  Schedule:Compact,
    Zone-Control-Type-Sched, !- Name
    Control Type,            !- Schedule Type Limits Name
    Through: 12/31,          !- Field 1
    For: Alldays,            !- Field 2
    Until: 24:00,3;          !- Field 3

  Schedule:Compact,
    ALWAYSON,                !- Name
    On/Off,                  !- Schedule Type Limits Name
    Through: 12/31,          !- Field 1
    For: AllDays,            !- Field 2
    Until: 24:00,1.;         !- Field 3

  Schedule:Compact,
    Setpoint_ZoneASched,     !- Name
    Temperature,             !- Schedule Type Limits Name
    Through: 12/31,          !- Field 1
    For: AllDays,            !- Field 2
    Until: 24:00,22;         !- Field 3

  Schedule:Compact,
    Setpoint_ZoneBSched,     !- Name
    Temperature,             !- Schedule Type Limits Name
    Through:12/31,           !- Field 1
    For: AllDays,            !- Field 2
    Until: 24:00,22;         !- Field 3

  Schedule:Compact,
    OCC-SCHED,               !- Name
    Fraction,                !- Schedule Type Limits Name
    Through: 12/31,          !- Field 1
    For: SummerDesignDay,    !- Field 2
    Until: 06:00,0.0,        !- Field 3
    Until: 22:00,1.0,        !- Field 5
    Until: 24:00,0.05,       !- Field 7
    For: Weekdays,           !- Field 9
    Until: 06:00,0.0,        !- Field 10
    Until: 07:00,0.1,        !- Field 12
    Until: 08:00,0.2,        !- Field 14
    Until: 12:00,0.95,       !- Field 16
    Until: 13:00,0.5,        !- Field 18
    Until: 17:00,0.95,       !- Field 20
    Until: 18:00,0.7,        !- Field 22
    Until: 20:00,0.4,        !- Field 24
    Until: 22:00,0.1,        !- Field 26
    Until: 24:00,0.05,       !- Field 28
    For: Saturday,           !- Field 30
    Until: 06:00,0.0,        !- Field 31
    Until: 08:00,0.1,        !- Field 33
    Until: 14:00,0.5,        !- Field 35
    Until: 17:00,0.1,        !- Field 37
    Until: 24:00,0.0,        !- Field 39
    For: AllOtherDays,       !- Field 41
    Until: 24:00,0.0;        !- Field 42

  Schedule:Compact,
    LIGHT-SCHED,             !- Name
    Fraction,                !- Schedule Type Limits Name
    Through: 12/31,          !- Field 1
    For: Weekdays,           !- Field 2
    Until: 05:00,0.05,       !- Field 3
    Until: 07:00,0.1,        !- Field 5
    Until: 08:00,0.3,        !- Field 7
    Until: 17:00,0.9,        !- Field 9
    Until: 18:00,0.7,        !- Field 11
    Until: 20:00,0.5,        !- Field 13
    Until: 22:00,0.3,        !- Field 15
    Until: 23:00,0.1,        !- Field 17
    Until: 24:00,0.05,       !- Field 19
    For: Saturday,           !- Field 21
    Until: 06:00,0.05,       !- Field 22
    Until: 08:00,0.1,        !- Field 24
    Until: 14:00,0.5,        !- Field 26
    Until: 17:00,0.15,       !- Field 28
    Until: 24:00,0.05,       !- Field 30
    For: SummerDesignDay,    !- Field 32
    Until: 24:00,1.0,        !- Field 33
    For: WinterDesignDay,    !- Field 35
    Until: 24:00,0.0,        !- Field 36
    For: AllOtherDays,       !- Field 38
    Until: 24:00,0.05;       !- Field 39

  Schedule:Compact,
    ACTIVITY-SCHED,          !- Name
    AnyNumber,               !- Schedule Type Limits Name
    Through: 12/31,          !- Field 1
    For: AllDays,            !- Field 2
    Until: 24:00,120;        !- Field 3

  Schedule:Compact,
    EQUIP-SCHED,             !- Name
    Fraction,                !- Schedule Type Limits Name
    Through: 12/31,          !- Field 1
    For: Weekdays,           !- Field 2
    Until: 08:00,0.40,       !- Field 3
    Until: 12:00,0.90,       !- Field 5
    Until: 13:00,0.80,       !- Field 7
    Until: 17:00,0.90,       !- Field 9
    Until: 18:00,0.80,       !- Field 11
    Until: 20:00,0.60,       !- Field 13
    Until: 22:00,0.50,       !- Field 15
    Until: 24:00,0.40,       !- Field 17
    For: Saturday,           !- Field 19
    Until: 06:00,0.30,       !- Field 20
    Until: 08:00,0.4,        !- Field 22
    Until: 14:00,0.5,        !- Field 24
    Until: 17:00,0.35,       !- Field 26
    Until: 24:00,0.30,       !- Field 28
    For: SummerDesignDay,    !- Field 30
    Until: 24:00,1.0,        !- Field 31
    For: WinterDesignDay,    !- Field 33
    Until: 24:00,0.0,        !- Field 34
    For: AllOtherDays,       !- Field 36
    Until: 24:00,0.30;       !- Field 37

  Schedule:Compact,
    INFIL-SCHED,             !- Name
    Fraction,                !- Schedule Type Limits Name
    Through: 12/31,          !- Field 1
    For: Weekdays SummerDesignDay, !- Field 2
    Until: 06:00,1.0,        !- Field 3
    Until: 22:00,0.25,       !- Field 5
    Until: 24:00,1.0,        !- Field 7
    For: Saturday WinterDesignDay, !- Field 9
    Until: 06:00,1.0,        !- Field 10
    Until: 18:00,0.25,       !- Field 12
    Until: 24:00,1.0,        !- Field 14
    For: Sunday Holidays AllOtherDays, !- Field 16
    Until: 24:00,1.0;        !- Field 17

  Schedule:Compact,
    WORK_EFF-SCHED,          !- Name
    Fraction,                !- Schedule Type Limits Name
    Through: 12/31,          !- Field 1
    For: AllDays,            !- Field 2
    Until: 24:00,0.0;        !- Field 3

  Schedule:Compact,
    AIR_VELO-SCHED,          !- Name
    AnyNumber,               !- Schedule Type Limits Name
    Through: 12/31,          !- Field 1
    For: AllDays,            !- Field 2
    Until: 24:00,0.2;        !- Field 3

  Schedule:Compact,
    CLOTHING-SCHED,          !- Name
    AnyNumber,               !- Schedule Type Limits Name
    Through: 04/30,          !- Field 1
    For: AllDays,            !- Field 2
    Until: 24:00,1.0,        !- Field 3
    Through: 09/30,          !- Field 5
    For: AllDays,            !- Field 6
    Until: 24:00,0.5,        !- Field 7
    Through: 12/31,          !- Field 9
    For: AllDays,            !- Field 10
    Until: 24:00,1.0;        !- Field 11

!-   ===========  ALL OBJECTS IN CLASS: SCHEDULE:FILE ===========
! ===========  Inputs ===========

  Schedule:File,
    Sys-A Fan Flow Rate,     !- Name
    ,                        !- Schedule Type Limits Name
    input_file.csv,          !- File Name
    4,                       !- Column Number
    1,                       !- Rows to Skip at Top
    8760,                    !- Number of Hours of Data
    Comma,                   !- Column Separator
    Yes;                     !- Interpolate to Timestep

  Schedule:File,
    Sys-A CW Supply Temp,    !- Name
    ,                        !- Schedule Type Limits Name
    input_file.csv,          !- File Name
    5,                       !- Column Number
    1,                       !- Rows to Skip at Top
    8760,                    !- Number of Hours of Data
    Comma,                   !- Column Separator
    Yes;                     !- Interpolate to Timestep

  Schedule:File,
    Sys-A HW Supply Temp,    !- Name
    ,                        !- Schedule Type Limits Name
    input_file.csv,          !- File Name
    6,                       !- Column Number
    1,                       !- Rows to Skip at Top
    8760,                    !- Number of Hours of Data
    Comma,                   !- Column Separator
    Yes;                     !- Interpolate to Timestep

  Schedule:File,
    Sys-B Fan Flow Rate,     !- Name
    ,                        !- Schedule Type Limits Name
    input_file.csv,          !- File Name
    7,                       !- Column Number
    1,                       !- Rows to Skip at Top
    8760,                    !- Number of Hours of Data
    Comma,                   !- Column Separator
    Yes;                     !- Interpolate to Timestep

  Schedule:File,
    Sys-B CW Supply Temp,    !- Name
    ,                        !- Schedule Type Limits Name
    input_file.csv,          !- File Name
    8,                       !- Column Number
    1,                       !- Rows to Skip at Top
    8760,                    !- Number of Hours of Data
    Comma,                   !- Column Separator
    Yes;                     !- Interpolate to Timestep

  Schedule:File,
    Sys-B HW Supply Temp,    !- Name
    ,                        !- Schedule Type Limits Name
    input_file.csv,          !- File Name
    9,                      !- Column Number
    1,                       !- Rows to Skip at Top
    8760,                    !- Number of Hours of Data
    Comma,                   !- Column Separator
    Yes;                     !- Interpolate to Timestep

  Schedule:File,
    Sys-A Supply Air Temperature,  !- Name
    ,                        !- Schedule Type Limits Name
    input_file.csv,          !- File Name
    10,                      !- Column Number
    1,                       !- Rows to Skip at Top
    8760,                    !- Number of Hours of Data
    Comma,                   !- Column Separator
    Yes;                     !- Interpolate to Timestep

  Schedule:File,
    Sys-B Supply Air Temperature,  !- Name
    ,                        !- Schedule Type Limits Name
    input_file.csv,          !- File Name
    11,                      !- Column Number
    1,                       !- Rows to Skip at Top
    8760,                    !- Number of Hours of Data
    Comma,                   !- Column Separator
    Yes;                     !- Interpolate to Timestep

  Schedule:File,
    FMU_Shading_ZoneA,       !- Name
    ,                        !- Schedule Type Limits Name
    input_file.csv,          !- File Name
    3,                       !- Column Number
    1,                       !- Rows to Skip at Top
    8760,                    !- Number of Hours of Data
    Comma,                   !- Column Separator
    Yes;                     !- Interpolate to Timestep

  Schedule:File,
    FMU_Shading_ZoneB,       !- Name
    ,                        !- Schedule Type Limits Name
    input_file.csv,          !- File Name
    12,                      !- Column Number
    1,                       !- Rows to Skip at Top
    8760,                    !- Number of Hours of Data
    Comma,                   !- Column Separator
    Yes;                     !- Interpolate to Timestep

!-   ===========  ALL OBJECTS IN CLASS: MATERIAL ===========
!=====================  Material/Construction Section  ==================================

  Material,
    Topping Slab Material,   !- Name
    Rough,                   !- Roughness
    0.1524,                  !- Thickness {m}
    0.36,                    !- Conductivity {W/m-K}
    1282.000,                !- Density {kg/m3}
    837.0000,                !- Specific Heat {J/kg-K}
    0.9000000,               !- Thermal Absorptance
    0.6500000,               !- Solar Absorptance
    0.6500000;               !- Visible Absorptance

  Material,
    Slab Horizontal Insulation,  !- Name
    Smooth,                  !- Roughness
    0.127,                   !- Thickness {m}
    0.035,                   !- Conductivity {W/m-K}
    265,                     !- Density {kg/m3}
    1300,                    !- Specific Heat {J/kg-K}
    0.9,                     !- Thermal Absorptance
    0.65,                    !- Solar Absorptance
    0.65;                    !- Visible Absorptance

  Material,
    HW CONCRETE,             !- Name
    Rough,                   !- Roughness
    0.1270,                  !- Thickness {m}
    1.3110,                  !- Conductivity {W/m-K}
    2240.0000,               !- Density {kg/m3}
    836.8000,                !- Specific Heat {J/kg-K}
    0.9000,                  !- Thermal Absorptance
    0.7000,                  !- Solar Absorptance
    0.7000;                  !- Visible Absorptance

  Material,
    Metal Panel,             !- Name
    MediumSmooth,            !- Roughness
    0.0011,                  !- Thickness {m}
    62,                      !- Conductivity {W/m-K}
    7580,                    !- Density {kg/m3}
    485,                     !- Specific Heat {J/kg-K}
    0.9,                     !- Thermal Absorptance
    0.5,                     !- Solar Absorptance
    0.5;                     !- Visible Absorptance

  Material,
    Plywood 1/2",            !- Name
    MediumSmooth,            !- Roughness
    0.0127,                  !- Thickness {m}
    0.115,                   !- Conductivity {W/m-K}
    545,                     !- Density {kg/m3}
    1213,                    !- Specific Heat {J/kg-K}
    0.9,                     !- Thermal Absorptance
    0.5,                     !- Solar Absorptance
    0.5;                     !- Visible Absorptance

  Material,
    Plywood 3/4",            !- Name
    MediumSmooth,            !- Roughness
    0.0191,                  !- Thickness {m}
    0.115,                   !- Conductivity {W/m-K}
    545,                     !- Density {kg/m3}
    1213,                    !- Specific Heat {J/kg-K}
    0.9,                     !- Thermal Absorptance
    0.5,                     !- Solar Absorptance
    0.5;                     !- Visible Absorptance

  Material,
    Gypsum Board,            !- Name
    MediumSmooth,            !- Roughness
    0.0159,                  !- Thickness {m}
    0.16,                    !- Conductivity {W/m-K}
    801,                     !- Density {kg/m3}
    837,                     !- Specific Heat {J/kg-K}
    0.9,                     !- Thermal Absorptance
    0.69,                    !- Solar Absorptance
    0.63;                    !- Visible Absorptance

  Material,
    Cement Board,            !- Name
    MediumSmooth,            !- Roughness
    0.0165,                  !- Thickness {m}
    0.58,                    !- Conductivity {W/m-K}
    1281,                    !- Density {kg/m3}
    837,                     !- Specific Heat {J/kg-K}
    0.9,                     !- Thermal Absorptance
    0.5,                     !- Solar Absorptance
    0.5;                     !- Visible Absorptance

  Material,
    SIP 7.25",               !- Name
    MediumSmooth,            !- Roughness
    0.1842,                  !- Thickness {m}
    0.038,                   !- Conductivity {W/m-K}
    29,                      !- Density {kg/m3}
    1210,                    !- Specific Heat {J/kg-K}
    0.9,                     !- Thermal Absorptance
    0.5,                     !- Solar Absorptance
    0.5;                     !- Visible Absorptance

  Material,
    Ins Board 3/4" R3.8,     !- Name
    MediumSmooth,            !- Roughness
    0.0191,                  !- Thickness {m}
    0.035,                   !- Conductivity {W/m-K}
    29,                      !- Density {kg/m3}
    1213,                    !- Specific Heat {J/kg-K}
    0.9,                     !- Thermal Absorptance
    0.5,                     !- Solar Absorptance
    0.5;                     !- Visible Absorptance

  Material,
    Ins Board 7.5" R13,      !- Name
    MediumSmooth,            !- Roughness
    0.1905,                  !- Thickness {m}
    0.039,                   !- Conductivity {W/m-K}
    48,                      !- Density {kg/m3}
    1318,                    !- Specific Heat {J/kg-K}
    0.9,                     !- Thermal Absorptance
    0.5,                     !- Solar Absorptance
    0.5;                     !- Visible Absorptance

  Material,
    MediumFurniture,         !- Name
    MediumSmooth,            !- Roughness
    0.57,                    !- Thickness {m}
    0.115,                   !- Conductivity {W/m-K}
    513,                     !- Density {kg/m3}
    1381,                    !- Specific Heat {J/kg-K}
    0.90,                    !- Thermal Absorptance
    0.75,                    !- Solar Absorptance
    0.75;                    !- Visible Absorptance

  Material,
    Equiv Layer K1-Kwall South Corner,  !- Name
    MediumSmooth,            !- Roughness
    0.0762,                  !- Thickness {m}
    0.035,                   !- Conductivity {W/m-K}
    109.2,                   !- Density {kg/m3}
    1276,                    !- Specific Heat {J/kg-K}
    0.9,                     !- Thermal Absorptance
    0.5,                     !- Solar Absorptance
    0.5;                     !- Visible Absorptance

  Material,
    Equiv Layer K2-Kwall South Corner,  !- Name
    MediumSmooth,            !- Roughness
    0.0762,                  !- Thickness {m}
    0.046,                   !- Conductivity {W/m-K}
    111.3,                   !- Density {kg/m3}
    1278,                    !- Specific Heat {J/kg-K}
    0.9,                     !- Thermal Absorptance
    0.5,                     !- Solar Absorptance
    0.5;                     !- Visible Absorptance

  Material,
    Equiv Layer K3-Kwall South Corner,  !- Name
    MediumSmooth,            !- Roughness
    0.197,                   !- Thickness {m}
    0.042,                   !- Conductivity {W/m-K}
    853.6,                   !- Density {kg/m3}
    1300,                    !- Specific Heat {J/kg-K}
    0.9,                     !- Thermal Absorptance
    0.5,                     !- Solar Absorptance
    0.5;                     !- Visible Absorptance

  Material,
    Equiv Layer K1-Kwall North Corner,  !- Name
    MediumSmooth,            !- Roughness
    0.0762,                  !- Thickness {m}
    0.055,                   !- Conductivity {W/m-K}
    109.2,                   !- Density {kg/m3}
    1276,                    !- Specific Heat {J/kg-K}
    0.9,                     !- Thermal Absorptance
    0.5,                     !- Solar Absorptance
    0.5;                     !- Visible Absorptance

  Material,
    Equiv Layer K2-Kwall North Corner,  !- Name
    MediumSmooth,            !- Roughness
    0.0762,                  !- Thickness {m}
    0.065,                   !- Conductivity {W/m-K}
    111.3,                   !- Density {kg/m3}
    1278,                    !- Specific Heat {J/kg-K}
    0.9,                     !- Thermal Absorptance
    0.5,                     !- Solar Absorptance
    0.5;                     !- Visible Absorptance

  Material,
    Equiv Layer K3-Kwall North Corner,  !- Name
    MediumSmooth,            !- Roughness
    0.197,                   !- Thickness {m}
    0.052,                   !- Conductivity {W/m-K}
    874.9,                   !- Density {kg/m3}
    1312,                    !- Specific Heat {J/kg-K}
    0.9,                     !- Thermal Absorptance
    0.5,                     !- Solar Absorptance
    0.5;                     !- Visible Absorptance

  Material,
    Equiv Layer K1-Kwall Middle,  !- Name
    MediumSmooth,            !- Roughness
    0.0762,                  !- Thickness {m}
    0.0344,                  !- Conductivity {W/m-K}
    48.3,                    !- Density {kg/m3}
    1228,                    !- Specific Heat {J/kg-K}
    0.9,                     !- Thermal Absorptance
    0.5,                     !- Solar Absorptance
    0.5;                     !- Visible Absorptance

  Material,
    Equiv Layer K1-Jwall South,  !- Name
    MediumSmooth,            !- Roughness
    0.0889,                  !- Thickness {m}
    0.0465,                  !- Conductivity {W/m-K}
    105.1,                   !- Density {kg/m3}
    1273,                    !- Specific Heat {J/kg-K}
    0.9,                     !- Thermal Absorptance
    0.5,                     !- Solar Absorptance
    0.5;                     !- Visible Absorptance

  Material,
    Equiv Layer K2-Jwall South,  !- Name
    MediumSmooth,            !- Roughness
    0.1053,                  !- Thickness {m}
    0.096,                   !- Conductivity {W/m-K}
    873,                     !- Density {kg/m3}
    1109,                    !- Specific Heat {J/kg-K}
    0.9,                     !- Thermal Absorptance
    0.5,                     !- Solar Absorptance
    0.5;                     !- Visible Absorptance

  Material,
    Equiv Layer K3-Jwall South,  !- Name
    MediumSmooth,            !- Roughness
    0.1827,                  !- Thickness {m}
    0.292,                   !- Conductivity {W/m-K}
    694,                     !- Density {kg/m3}
    1287,                    !- Specific Heat {J/kg-K}
    0.9,                     !- Thermal Absorptance
    0.5,                     !- Solar Absorptance
    0.5;                     !- Visible Absorptance

  Material,
    Equiv Layer K1-Jwall North,  !- Name
    MediumSmooth,            !- Roughness
    0.1016,                  !- Thickness {m}
    0.0565,                  !- Conductivity {W/m-K}
    619.6,                   !- Density {kg/m3}
    1010,                    !- Specific Heat {J/kg-K}
    0.9,                     !- Thermal Absorptance
    0.5,                     !- Solar Absorptance
    0.5;                     !- Visible Absorptance

  Material,
    Equiv Layer K2-Jwall North,  !- Name
    MediumSmooth,            !- Roughness
    0.1848,                  !- Thickness {m}
    0.184,                   !- Conductivity {W/m-K}
    747.9,                   !- Density {kg/m3}
    1599,                    !- Specific Heat {J/kg-K}
    0.9,                     !- Thermal Absorptance
    0.5,                     !- Solar Absorptance
    0.5;                     !- Visible Absorptance

  Material,
    Equiv Layer K1-Hwall South,  !- Name
    MediumSmooth,            !- Roughness
    0.1016,                  !- Thickness {m}
    0.046,                   !- Conductivity {W/m-K}
    75.3,                    !- Density {kg/m3}
    1250,                    !- Specific Heat {J/kg-K}
    0.9,                     !- Thermal Absorptance
    0.5,                     !- Solar Absorptance
    0.5;                     !- Visible Absorptance

  Material,
    Equiv Layer K2-Hwall South,  !- Name
    MediumSmooth,            !- Roughness
    0.1016,                  !- Thickness {m}
    0.0488,                  !- Conductivity {W/m-K}
    297.9,                   !- Density {kg/m3}
    1411,                    !- Specific Heat {J/kg-K}
    0.9,                     !- Thermal Absorptance
    0.5,                     !- Solar Absorptance
    0.5;                     !- Visible Absorptance

  Material,
    Equiv Layer K3-Hwall South,  !- Name
    MediumSmooth,            !- Roughness
    0.3927,                  !- Thickness {m}
    0.066,                   !- Conductivity {W/m-K}
    1428,                    !- Density {kg/m3}
    1044,                    !- Specific Heat {J/kg-K}
    0.9,                     !- Thermal Absorptance
    0.5,                     !- Solar Absorptance
    0.5;                     !- Visible Absorptance

  Material,
    Equiv Layer K1-Hwall North,  !- Name
    MediumSmooth,            !- Roughness
    0.0889,                  !- Thickness {m}
    0.0503,                  !- Conductivity {W/m-K}
    107.1,                   !- Density {kg/m3}
    1274,                    !- Specific Heat {J/kg-K}
    0.9,                     !- Thermal Absorptance
    0.5,                     !- Solar Absorptance
    0.5;                     !- Visible Absorptance

  Material,
    Equiv Layer K2-Hwall North,  !- Name
    MediumSmooth,            !- Roughness
    0.1803,                  !- Thickness {m}
    0.0635,                  !- Conductivity {W/m-K}
    89.6,                    !- Density {kg/m3}
    1261,                    !- Specific Heat {J/kg-K}
    0.9,                     !- Thermal Absorptance
    0.5,                     !- Solar Absorptance
    0.5;                     !- Visible Absorptance

  Material,
    Equiv Layer K3-Hwall North,  !- Name
    MediumSmooth,            !- Roughness
    0.508,                   !- Thickness {m}
    0.1160,                  !- Conductivity {W/m-K}
    563.7,                   !- Density {kg/m3}
    968,                     !- Specific Heat {J/kg-K}
    0.9,                     !- Thermal Absorptance
    0.5,                     !- Solar Absorptance
    0.5;                     !- Visible Absorptance

  Material,
    Equiv Layer K1-SouthWall,!- Name
    MediumSmooth,            !- Roughness
    0.1524,                  !- Thickness {m}
    0.174,                   !- Conductivity {W/m-K}
    105.9,                   !- Density {kg/m3}
    1312,                    !- Specific Heat {J/kg-K}
    0.9,                     !- Thermal Absorptance
    0.5,                     !- Solar Absorptance
    0.5;                     !- Visible Absorptance

  Material,
    Equiv Layer K1-NorthWall,!- Name
    MediumSmooth,            !- Roughness