!-Generator IDFEditor 1.47
!-Option SortedOrder UseSpecialFormat

!-NOTE: All comments with '!-' are ignored by the IDFEditor and are generated automatically.
!-      Use '!' comments if they need to be retained when using the IDFEditor.


!-   ===========  ALL OBJECTS IN CLASS: VERSION ===========

Version,8.5;

!-   ===========  ALL OBJECTS IN CLASS: SIMULATIONCONTROL ===========


! ===========  File Prefix ===========
! ===========  Simulation Parameters ===========
SimulationControl,
    No,                      !- Do Zone Sizing Calculation
    No,                      !- Do System Sizing Calculation
    No,                      !- Do Plant Sizing Calculation
    No,                      !- Run Simulation for Sizing Periods
    Yes;                     !- Run Simulation for Weather File Run Periods


!-   ===========  ALL OBJECTS IN CLASS: BUILDING ===========

Building,
    Office,                  !- Name
    0,                       !- North Axis {deg}
    Suburbs,                 !- Terrain
    0.04,                    !- Loads Convergence Tolerance Value
    0.4,                     !- Temperature Convergence Tolerance Value {deltaC}
    FullInteriorAndExteriorWithReflections,  !- Solar Distribution
    30,                      !- Maximum Number of Warmup Days
    6;                       !- Minimum Number of Warmup Days


!-   ===========  ALL OBJECTS IN CLASS: SHADOWCALCULATION ===========

ShadowCalculation,
    AverageOverDaysInFrequency,  !- Calculation Method
    20,                      !- Calculation Frequency
    50000;                   !- Maximum Figures in Shadow Overlap Calculations


!-   ===========  ALL OBJECTS IN CLASS: SURFACECONVECTIONALGORITHM:INSIDE ===========

SurfaceConvectionAlgorithm:Inside,TARP;

!-   ===========  ALL OBJECTS IN CLASS: SURFACECONVECTIONALGORITHM:OUTSIDE ===========

SurfaceConvectionAlgorithm:Outside,SimpleCombined;

!-   ===========  ALL OBJECTS IN CLASS: HEATBALANCEALGORITHM ===========

HeatBalanceAlgorithm,ConductionTransferFunction;

!-   ===========  ALL OBJECTS IN CLASS: ZONECAPACITANCEMULTIPLIER:RESEARCHSPECIAL ===========

ZoneCapacitanceMultiplier:ResearchSpecial,1,1,1,;

!-   ===========  ALL OBJECTS IN CLASS: TIMESTEP ===========

Timestep,4;

!-   ===========  ALL OBJECTS IN CLASS: SITE:LOCATION ===========


Site:Location,
    Oakland Metropolitan Arpt_CA_USA Design_Conditions,  !- Name
    37.72,                   !- Latitude {deg}
    -122.22,                 !- Longitude {deg}
    -8.0,                    !- Time Zone {hr}
    2.00;                    !- Elevation {m}


!-   ===========  ALL OBJECTS IN CLASS: RUNPERIOD ===========

! ===========  Run Period ===========
RunPeriod,
    datarun,                 !- Name
    1,                       !- Begin Month
    1,                       !- Begin Day of Month
    12,                      !- End Month
    31,                      !- End Day of Month
    UseWeatherFile,          !- Day of Week for Start Day
    No,                      !- Use Weather File Holidays and Special Days
    No,                      !- Use Weather File Daylight Saving Period
    Yes,                     !- Apply Weekend Holiday Rule
    Yes,                     !- Use Weather File Rain Indicators
    Yes;                     !- Use Weather File Snow Indicators


!-   ===========  ALL OBJECTS IN CLASS: RUNPERIODCONTROL:SPECIALDAYS ===========

RunPeriodControl:SpecialDays,
    New Years Day,           !- Name
    1 January,               !- Start Date
    1,                       !- Duration {days}
    Holiday;                 !- Special Day Type

RunPeriodControl:SpecialDays,
    Martin Luther King Day,  !- Name
    3rd Monday in January,   !- Start Date
    1,                       !- Duration {days}
    Holiday;                 !- Special Day Type

RunPeriodControl:SpecialDays,
    Washington's Birthday,   !- Name
    3rd Monday in February,  !- Start Date
    1,                       !- Duration {days}
    Holiday;                 !- Special Day Type

RunPeriodControl:SpecialDays,
    Memorial Day,            !- Name
    Last Monday in May,      !- Start Date
    1,                       !- Duration {days}
    Holiday;                 !- Special Day Type

RunPeriodControl:SpecialDays,
    Independence Day,        !- Name
    4 July,                  !- Start Date
    1,                       !- Duration {days}
    Holiday;                 !- Special Day Type

RunPeriodControl:SpecialDays,
    Labor Day,               !- Name
    1st Monday in September, !- Start Date
    1,                       !- Duration {days}
    Holiday;                 !- Special Day Type

RunPeriodControl:SpecialDays,
    Veteran's Day,           !- Name
    11 November,             !- Start Date
    1,                       !- Duration {days}
    Holiday;                 !- Special Day Type

RunPeriodControl:SpecialDays,
    Thanksgiving Day,        !- Name
    4th Thursday in November,!- Start Date
    1,                       !- Duration {days}
    Holiday;                 !- Special Day Type

RunPeriodControl:SpecialDays,
    Christmas Day,           !- Name
    25 December,             !- Start Date
    1,                       !- Duration {days}
    Holiday;                 !- Special Day Type

RunPeriodControl:SpecialDays,
    New Year's Eve,          !- Name
    31 December,             !- Start Date
    1,                       !- Duration {days}
    Holiday;                 !- Special Day Type


!-   ===========  ALL OBJECTS IN CLASS: SITE:GROUNDTEMPERATURE:BUILDINGSURFACE ===========

Site:GroundTemperature:BuildingSurface,22.0,22.0,22.0,22.0,22.0,22.0,22.0,22.0,22.0,22.0,22.0,22.0;

!-   ===========  ALL OBJECTS IN CLASS: SCHEDULETYPELIMITS ===========


ScheduleTypeLimits,
    AnyNumber,               !- Name
    ,                        !- Lower Limit Value
    ,                        !- Upper Limit Value
    CONTINUOUS;              !- Numeric Type

ScheduleTypeLimits,
    On/Off,                  !- Name
    0,                       !- Lower Limit Value
    1,                       !- Upper Limit Value
    DISCRETE,                !- Numeric Type
    Availability;            !- Unit Type

ScheduleTypeLimits,
    Fraction,                !- Name
    0,                       !- Lower Limit Value
    1,                       !- Upper Limit Value
    CONTINUOUS,              !- Numeric Type
    Dimensionless;           !- Unit Type

ScheduleTypeLimits,
    Temperature,             !- Name
    -60,                     !- Lower Limit Value
    200,                     !- Upper Limit Value
    CONTINUOUS,              !- Numeric Type
    Temperature;             !- Unit Type

ScheduleTypeLimits,
    Control Type,            !- Name
    1,                       !- Lower Limit Value
    4,                       !- Upper Limit Value
    Discrete,                !- Numeric Type
    Control;                 !- Unit Type

ScheduleTypeLimits,
    AirFlowRate,             !- Name
    0,                       !- Lower Limit Value
    3,                       !- Upper Limit Value
    Continuous;              !- Numeric Type

ScheduleTypeLimits,
    WaterFlowRate,           !- Name
    0,                       !- Lower Limit Value
    0.1,                     !- Upper Limit Value
    Continuous;              !- Numeric Type


!-   ===========  ALL OBJECTS IN CLASS: SCHEDULE:COMPACT ===========

Schedule:Compact,
    Zone-Control-Type-Sched, !- Name
    Control Type,            !- Schedule Type Limits Name
    Through: 12/31,          !- Field 1
    For: Alldays,            !- Field 2
    Until: 24:00, 3;         !- Field 4

Schedule:Compact,
    ALWAYSON,                !- Name
    On/Off,                  !- Schedule Type Limits Name
    Through: 12/31,          !- Field 1
    For: AllDays,            !- Field 2
    Until: 24:00, 1.;        !- Field 4

Schedule:Compact,
    Setpoint_ZoneASched,     !- Name
    Temperature,             !- Schedule Type Limits Name
    Through: 12/31,          !- Field 1
    For: AllDays,            !- Field 2
    Until: 24:00, 22;        !- Field 4

Schedule:Compact,
    Setpoint_ZoneBSched,     !- Name
    Temperature,             !- Schedule Type Limits Name
    Through:12/31,           !- Field 1
    For: AllDays,            !- Field 2
    Until: 24:00, 22;        !- Field 4

Schedule:Compact,
    OCC-SCHED,               !- Name
    Fraction,                !- Schedule Type Limits Name
    Through: 12/31,          !- Field 1
    For: SummerDesignDay,    !- Field 2
    Until: 06:00, 0.0,       !- Field 4
    Until: 22:00, 1.0,       !- Field 6
    Until: 24:00, 0.05,      !- Field 8
    For: Weekdays,           !- Field 9
    Until: 06:00, 0.0,       !- Field 11
    Until: 07:00, 0.1,       !- Field 13
    Until: 08:00, 0.2,       !- Field 15
    Until: 12:00, 0.95,      !- Field 17
    Until: 13:00, 0.5,       !- Field 19
    Until: 17:00, 0.95,      !- Field 21
    Until: 18:00, 0.7,       !- Field 23
    Until: 20:00, 0.4,       !- Field 25
    Until: 22:00, 0.1,       !- Field 27
    Until: 24:00, 0.05,      !- Field 29
    For: Saturday,           !- Field 30
    Until: 06:00, 0.0,       !- Field 32
    Until: 08:00, 0.1,       !- Field 34
    Until: 14:00, 0.5,       !- Field 36
    Until: 17:00, 0.1,       !- Field 38
    Until: 24:00, 0.0,       !- Field 40
    For: AllOtherDays,       !- Field 41
    Until: 24:00, 0.0;       !- Field 43

Schedule:Compact,
    LIGHT-SCHED,             !- Name
    Fraction,                !- Schedule Type Limits Name
    Through: 12/31,          !- Field 1
    For: Weekdays,           !- Field 2
    Until: 05:00, 0.05,      !- Field 4
    Until: 07:00, 0.1,       !- Field 6
    Until: 08:00, 0.3,       !- Field 8
    Until: 17:00, 0.9,       !- Field 10
    Until: 18:00, 0.7,       !- Field 12
    Until: 20:00, 0.5,       !- Field 14
    Until: 22:00, 0.3,       !- Field 16
    Until: 23:00, 0.1,       !- Field 18
    Until: 24:00, 0.05,      !- Field 20
    For: Saturday,           !- Field 21
    Until: 06:00, 0.05,      !- Field 23
    Until: 08:00, 0.1,       !- Field 25
    Until: 14:00, 0.5,       !- Field 27
    Until: 17:00, 0.15,      !- Field 29
    Until: 24:00, 0.05,      !- Field 31
    For: SummerDesignDay,    !- Field 32
    Until: 24:00, 1.0,       !- Field 34
    For: WinterDesignDay,    !- Field 35
    Until: 24:00, 0.0,       !- Field 37
    For: AllOtherDays,       !- Field 38
    Until: 24:00, 0.05;      !- Field 40

Schedule:Compact,
    ACTIVITY-SCHED,          !- Name
    AnyNumber,               !- Schedule Type Limits Name
    Through: 12/31,          !- Field 1
    For: AllDays,            !- Field 2
    Until: 24:00, 120;       !- Field 4

Schedule:Compact,
    EQUIP-SCHED,             !- Name
    Fraction,                !- Schedule Type Limits Name
    Through: 12/31,          !- Field 1
    For: Weekdays,           !- Field 2
    Until: 08:00, 0.40,      !- Field 4
    Until: 12:00, 0.90,      !- Field 6
    Until: 13:00, 0.80,      !- Field 8
    Until: 17:00, 0.90,      !- Field 10
    Until: 18:00, 0.80,      !- Field 12
    Until: 20:00, 0.60,      !- Field 14
    Until: 22:00, 0.50,      !- Field 16
    Until: 24:00, 0.40,      !- Field 18
    For: Saturday,           !- Field 19
    Until: 06:00, 0.30,      !- Field 21
    Until: 08:00, 0.4,       !- Field 23
    Until: 14:00, 0.5,       !- Field 25
    Until: 17:00, 0.35,      !- Field 27
    Until: 24:00, 0.30,      !- Field 29
    For: SummerDesignDay,    !- Field 30
    Until: 24:00, 1.0,       !- Field 32
    For: WinterDesignDay,    !- Field 33
    Until: 24:00, 0.0,       !- Field 35
    For: AllOtherDays,       !- Field 36
    Until: 24:00, 0.30;      !- Field 38

Schedule:Compact,
    INFIL-SCHED,             !- Name
    Fraction,                !- Schedule Type Limits Name
    Through: 12/31,          !- Field 1
    For: Weekdays SummerDesignDay,  !- Field 2
    Until: 06:00, 1.0,       !- Field 4
    Until: 22:00, 0.25,      !- Field 6
    Until: 24:00, 1.0,       !- Field 8
    For: Saturday WinterDesignDay,  !- Field 9
    Until: 06:00, 1.0,       !- Field 11
    Until: 18:00, 0.25,      !- Field 13
    Until: 24:00, 1.0,       !- Field 15
    For: Sunday Holidays AllOtherDays,  !- Field 16
    Until: 24:00, 1.0;       !- Field 18

Schedule:Compact,
    WORK_EFF-SCHED,          !- Name
    Fraction,                !- Schedule Type Limits Name
    Through: 12/31,          !- Field 1
    For: AllDays,            !- Field 2
    Until: 24:00, 0.0;       !- Field 4

Schedule:Compact,
    AIR_VELO-SCHED,          !- Name
    AnyNumber,               !- Schedule Type Limits Name
    Through: 12/31,          !- Field 1
    For: AllDays,            !- Field 2
    Until: 24:00, 0.2;       !- Field 4

Schedule:Compact,
    CLOTHING-SCHED,          !- Name
    AnyNumber,               !- Schedule Type Limits Name
    Through: 04/30,          !- Field 1
    For: AllDays,            !- Field 2
    Until: 24:00, 1.0,       !- Field 4
    Through: 09/30,          !- Field 5
    For: AllDays,            !- Field 6
    Until: 24:00, 0.5,       !- Field 8
    Through: 12/31,          !- Field 9
    For: AllDays,            !- Field 10
    Until: 24:00, 1.0;       !- Field 12


!-   ===========  ALL OBJECTS IN CLASS: MATERIAL ===========

Material,
    Topping Slab Material,   !- Name
    Rough,                   !- Roughness
    0.1524,                  !- Thickness {m}
    0.36,                    !- Conductivity {W/m-K}
    1986,                    !- Density {kg/m3}
    879,                     !- Specific Heat {J/kg-K}
    0.9,                     !- Thermal Absorptance
    0.65,                    !- Solar Absorptance
    0.6500000;               !- Visible Absorptance

Material,
    Slab Horizontal Insulation,  !- Name
    Smooth,                  !- Roughness
    0.127,                   !- Thickness {m}
    0.035,                   !- Conductivity {W/m-K}
    20.8239892355994,        !- Density {kg/m3}
    1300,                    !- Specific Heat {J/kg-K}
    0.9,                     !- Thermal Absorptance
    0.65,                    !- Solar Absorptance
    0.65;                    !- Visible Absorptance

Material,
    HW CONCRETE,             !- Name
    Rough,                   !- Roughness
    0.1270,                  !- Thickness {m}
    1.3110,                  !- Conductivity {W/m-K}
    2240.0000,               !- Density {kg/m3}
    836.8000,                !- Specific Heat {J/kg-K}
    0.9000,                  !- Thermal Absorptance
    0.7000,                  !- Solar Absorptance
    0.7000;                  !- Visible Absorptance

Material,
    Metal Panel,             !- Name
    MediumSmooth,            !- Roughness
    0.0011,                  !- Thickness {m}
    62,                      !- Conductivity {W/m-K}
    7580,                    !- Density {kg/m3}
    485,                     !- Specific Heat {J/kg-K}
    0.9,                     !- Thermal Absorptance
    0.5,                     !- Solar Absorptance
    0.5;                     !- Visible Absorptance

Material,
    Plywood 1/2",            !- Name
    MediumSmooth,            !- Roughness
    0.0127,                  !- Thickness {m}
    0.115,                   !- Conductivity {W/m-K}
    545,                     !- Density {kg/m3}
    1213,                    !- Specific Heat {J/kg-K}
    0.9,                     !- Thermal Absorptance
    0.5,                     !- Solar Absorptance
    0.5;                     !- Visible Absorptance

Material,
    Plywood 3/4",            !- Name
    MediumSmooth,            !- Roughness
    0.0191,                  !- Thickness {m}
    0.115,                   !- Conductivity {W/m-K}
    545,                     !- Density {kg/m3}
    1213,                    !- Specific Heat {J/kg-K}
    0.9,                     !- Thermal Absorptance
    0.5,                     !- Solar Absorptance
    0.5;                     !- Visible Absorptance

Material,
    Gypsum Board,            !- Name
    MediumSmooth,            !- Roughness
    0.0159,                  !- Thickness {m}
    0.16,                    !- Conductivity {W/m-K}
    801,                     !- Density {kg/m3}
    837,                     !- Specific Heat {J/kg-K}
    0.15,                    !- Thermal Absorptance
    0.15,                    !- Solar Absorptance
    0.63;                    !- Visible Absorptance

Material,
    Cement Board,            !- Name
    MediumSmooth,            !- Roughness
    0.0165,                  !- Thickness {m}
    0.58,                    !- Conductivity {W/m-K}
    1281,                    !- Density {kg/m3}
    837,                     !- Specific Heat {J/kg-K}
    0.9,                     !- Thermal Absorptance
    0.5,                     !- Solar Absorptance
    0.5;                     !- Visible Absorptance

Material,
    SIP 7.25",               !- Name
    MediumSmooth,            !- Roughness
    0.1842,                  !- Thickness {m}
    0.038,                   !- Conductivity {W/m-K}
    29,                      !- Density {kg/m3}
    1210,                    !- Specific Heat {J/kg-K}
    0.9,                     !- Thermal Absorptance
    0.5,                     !- Solar Absorptance
    0.5;                     !- Visible Absorptance

Material,
    Ins Board 3/4" R3.8,     !- Name
    MediumSmooth,            !- Roughness
    0.0191,                  !- Thickness {m}
    0.035,                   !- Conductivity {W/m-K}
    29,                      !- Density {kg/m3}
    1213,                    !- Specific Heat {J/kg-K}
    0.9,                     !- Thermal Absorptance
    0.5,                     !- Solar Absorptance
    0.5;                     !- Visible Absorptance

Material,
    Ins Board 7.5" R13,      !- Name
    MediumSmooth,            !- Roughness
    0.1905,                  !- Thickness {m}
    0.039,                   !- Conductivity {W/m-K}
    48,                      !- Density {kg/m3}
    1318,                    !- Specific Heat {J/kg-K}
    0.9,                     !- Thermal Absorptance
    0.5,                     !- Solar Absorptance
    0.5;                     !- Visible Absorptance

Material,
    MediumFurniture,         !- Name
    MediumSmooth,            !- Roughness
    0.57,                    !- Thickness {m}
    0.115,                   !- Conductivity {W/m-K}
    513,                     !- Density {kg/m3}
    1381,                    !- Specific Heat {J/kg-K}
    0.90,                    !- Thermal Absorptance
    0.75,                    !- Solar Absorptance
    0.75;                    !- Visible Absorptance

Material,
    Equiv Layer K1-Kwall South Corner,  !- Name
    MediumSmooth,            !- Roughness
    0.0762,                  !- Thickness {m}
    0.035,                   !- Conductivity {W/m-K}
    109.2,                   !- Density {kg/m3}
    1276,                    !- Specific Heat {J/kg-K}
    0.9,                     !- Thermal Absorptance
    0.5,                     !- Solar Absorptance
    0.5;                     !- Visible Absorptance

Material,
    Equiv Layer K2-Kwall South Corner,  !- Name
    MediumSmooth,            !- Roughness
    0.0762,                  !- Thickness {m}
    0.046,                   !- Conductivity {W/m-K}
    111.3,                   !- Density {kg/m3}
    1278,                    !- Specific Heat {J/kg-K}
    0.9,                     !- Thermal Absorptance
    0.5,                     !- Solar Absorptance
    0.5;                     !- Visible Absorptance

Material,
    Equiv Layer K3-Kwall South Corner,  !- Name
    MediumSmooth,            !- Roughness
    0.197,                   !- Thickness {m}
    0.042,                   !- Conductivity {W/m-K}
    853.6,                   !- Density {kg/m3}
    1300,                    !- Specific Heat {J/kg-K}
    0.9,                     !- Thermal Absorptance
    0.5,                     !- Solar Absorptance
    0.5;                     !- Visible Absorptance

Material,
    Equiv Layer K1-Kwall North Corner,  !- Name
    MediumSmooth,            !- Roughness
    0.0762,                  !- Thickness {m}
    0.055,                   !- Conductivity {W/m-K}
    109.2,                   !- Density {kg/m3}
    1276,                    !- Specific Heat {J/kg-K}
    0.9,                     !- Thermal Absorptance
    0.5,                     !- Solar Absorptance
    0.5;                     !- Visible Absorptance

Material,
    Equiv Layer K2-Kwall North Corner,  !- Name
    MediumSmooth,            !- Roughness
    0.0762,                  !- Thickness {m}
    0.065,                   !- Conductivity {W/m-K}
    111.3,                   !- Density {kg/m3}
    1278,                    !- Specific Heat {J/kg-K}
    0.9,                     !- Thermal Absorptance
    0.5,                     !- Solar Absorptance
    0.5;                     !- Visible Absorptance

Material,
    Equiv Layer K3-Kwall North Corner,  !- Name
    MediumSmooth,            !- Roughness
    0.197,                   !- Thickness {m}
    0.052,                   !- Conductivity {W/m-K}
    874.9,                   !- Density {kg/m3}
    1312,                    !- Specific Heat {J/kg-K}
    0.9,                     !- Thermal Absorptance
    0.5,                     !- Solar Absorptance
    0.5;                     !- Visible Absorptance

Material,
    Equiv Layer K1-Kwall Middle,  !- Name
    MediumSmooth,            !- Roughness
    0.0762,                  !- Thickness {m}
    0.0344,                  !- Conductivity {W/m-K}
    48.3,                    !- Density {kg/m3}
    1228,                    !- Specific Heat {J/kg-K}
    0.9,                     !- Thermal Absorptance
    0.5,                     !- Solar Absorptance
    0.5;                     !- Visible Absorptance

Material,
    Equiv Layer K1-Jwall South,  !- Name
    MediumSmooth,            !- Roughness
    0.0889,                  !- Thickness {m}
    0.0465,                  !- Conductivity {W/m-K}
    105.1,                   !- Density {kg/m3}
    1273,                    !- Specific Heat {J/kg-K}
    0.9,                     !- Thermal Absorptance
    0.5,                     !- Solar Absorptance
    0.5;                     !- Visible Absorptance

Material,
    Equiv Layer K2-Jwall South,  !- Name
    MediumSmooth,            !- Roughness
    0.1053,                  !- Thickness {m}
    0.096,                   !- Conductivity {W/m-K}
    873,                     !- Density {kg/m3}
    1109,                    !- Specific Heat {J/kg-K}
    0.9,                     !- Thermal Absorptance
    0.5,                     !- Solar Absorptance
    0.5;                     !- Visible Absorptance

Material,
    Equiv Layer K3-Jwall South,  !- Name
    MediumSmooth,            !- Roughness
    0.1827,                  !- Thickness {m}
    0.292,                   !- Conductivity {W/m-K}
    694,                     !- Density {kg/m3}
    1287,                    !- Specific Heat {J/kg-K}
    0.9,                     !- Thermal Absorptance
    0.5,                     !- Solar Absorptance
    0.5;                     !- Visible Absorptance

Material,
    Equiv Layer K1-Jwall North,  !- Name
    MediumSmooth,            !- Roughness
    0.1016,                  !- Thickness {m}
    0.0565,                  !- Conductivity {W/m-K}
    619.6,                   !- Density {kg/m3}
    1010,                    !- Specific Heat {J/kg-K}
    0.9,                     !- Thermal Absorptance
    0.5,                     !- Solar Absorptance
    0.5;                     !- Visible Absorptance

Material,
    Equiv Layer K2-Jwall North,  !- Name
    MediumSmooth,            !- Roughness
    0.1848,                  !- Thickness {m}
    0.184,                   !- Conductivity {W/m-K}
    747.9,                   !- Density {kg/m3}
    1599,                    !- Specific Heat {J/kg-K}
    0.9,                     !- Thermal Absorptance
    0.5,                     !- Solar Absorptance
    0.5;                     !- Visible Absorptance

Material,
    Equiv Layer K1-Hwall South,  !- Name
    MediumSmooth,            !- Roughness
    0.1016,                  !- Thickness {m}
    0.046,                   !- Conductivity {W/m-K}
    75.3,                    !- Density {kg/m3}
    1250,                    !- Specific Heat {J/kg-K}
    0.9,                     !- Thermal Absorptance
    0.5,                     !- Solar Absorptance
    0.5;                     !- Visible Absorptance

Material,
    Equiv Layer K2-Hwall South,  !- Name
    MediumSmooth,            !- Roughness
    0.1016,                  !- Thickness {m}
    0.0488,                  !- Conductivity {W/m-K}
    297.9,                   !- Density {kg/m3}
    1411,                    !- Specific Heat {J/kg-K}
    0.9,                     !- Thermal Absorptance
    0.5,                     !- Solar Absorptance
    0.5;                     !- Visible Absorptance

Material,
    Equiv Layer K3-Hwall South,  !- Name
    MediumSmooth,            !- Roughness
    0.3927,                  !- Thickness {m}
    0.066,                   !- Conductivity {W/m-K}
    1428,                    !- Density {kg/m3}
    1044,                    !- Specific Heat {J/kg-K}
    0.9,                     !- Thermal Absorptance
    0.5,                     !- Solar Absorptance
    0.5;                     !- Visible Absorptance

Material,
    Equiv Layer K1-Hwall North,  !- Name
    MediumSmooth,            !- Roughness
    0.0889,                  !- Thickness {m}
    0.0503,                  !- Conductivity {W/m-K}
    107.1,                   !- Density {kg/m3}
    1274,                    !- Specific Heat {J/kg-K}
    0.9,                     !- Thermal Absorptance
    0.5,                     !- Solar Absorptance
    0.5;                     !- Visible Absorptance

Material,
    Equiv Layer K2-Hwall North,  !- Name
    MediumSmooth,            !- Roughness
    0.1803,                  !- Thickness {m}
    0.0635,                  !- Conductivity {W/m-K}
    89.6,                    !- Density {kg/m3}
    1261,                    !- Specific Heat {J/kg-K}
    0.9,                     !- Thermal Absorptance
    0.5,                     !- Solar Absorptance
    0.5;                     !- Visible Absorptance

Material,
    Equiv Layer K3-Hwall North,  !- Name
    MediumSmooth,            !- Roughness
    0.508,                   !- Thickness {m}
    0.1160,                  !- Conductivity {W/m-K}
    563.7,                   !- Density {kg/m3}
    968,                     !- Specific Heat {J/kg-K}
    0.9,                     !- Thermal Absorptance
    0.5,                     !- Solar Absorptance
    0.5;                     !- Visible Absorptance

Material,
    Equiv Layer K1-SouthWall,!- Name
    MediumSmooth,            !- Roughness
    0.1524,                  !- Thickness {m}
    0.174,                   !- Conductivity {W/m-K}
    105.9,                   !- Density {kg/m3}
    1312,                    !- Specific Heat {J/kg-K}
    0.9,                     !- Thermal Absorptance
    0.5,                     !- Solar Absorptance
    0.5;                     !- Visible Absorptance

Material,
    Equiv Layer K1-NorthWall,!- Name
    MediumSmooth,            !- Roughness
    0.1842,                  !- Thickness {m}
    0.2050,                  !- Conductivity {W/m-K}
    270,                     !- Density {kg/m3}
    1300,                    !- Specific Heat {J/kg-K}
    0.9,                     !- Thermal Absorptance
    0.5,                     !- Solar Absorptance
    0.5;                     !- Visible Absorptance

Material,
    Equiv Layer K2-NorthWall,!- Name
    MediumSmooth,            !- Roughness
    0.0762,                  !- Thickness {m}
    0.0418,                  !- Conductivity {W/m-K}
    72.9,                    !- Density {kg/m3}
    1249,                    !- Specific Heat {J/kg-K}
    0.9,                     !- Thermal Absorptance
    0.5,                     !- Solar Absorptance
    0.5;                     !- Visible Absorptance

Material,
    Equiv Layer K4-NorthWall,!- Name
    MediumSmooth,            !- Roughness
    0.1524,                  !- Thickness {m}
    0.1360,                  !- Conductivity {W/m-K}
    80.1,                    !- Density {kg/m3}
    1314,                    !- Specific Heat {J/kg-K}
    0.9,                     !- Thermal Absorptance
    0.5,                     !- Solar Absorptance
    0.5;                     !- Visible Absorptance

Material,
    Equiv Layer K5-NorthWall,!- Name
    MediumSmooth,            !- Roughness
    0.0889,                  !- Thickness {m}
    0.3706,                  !- Conductivity {W/m-K}
    79.4,                    !- Density {kg/m3}
    230,                     !- Specific Heat {J/kg-K}
    0.9,                     !- Thermal Absorptance
    0.5,                     !- Solar Absorptance
    0.5;                     !- Visible Absorptance

Material,
    Acous Tile 3/4in,        !- Name
    MediumSmooth,            !- Roughness
    0.0191,                  !- Thickness {m}
    0.057,                   !- Conductivity {W/m-K}
    288,                     !- Density {kg/m3}
    1890,                    !- Specific Heat {J/kg-K}
    0.35,                    !- Thermal Absorptance
    0.35,                    !- Solar Absorptance
    0.8973;                  !- Visible Absorptance

Material,
    Door_StainlessSteel,     !- Name
    MediumSmooth,            !- Roughness
    0.015,                   !- Thickness {m}
    20,                      !- Conductivity {W/m-K}
    8050,                    !- Density {kg/m3}
    450,                     !- Specific Heat {J/kg-K}
    0.9,                     !- Thermal Absorptance
    0.9,                     !- Solar Absorptance
    0.9;                     !- Visible Absorptance

Material,
    Door_InsulationBoard,    !- Name